
**** 03/31/22 10:34:19 ******* PSpice Lite (March 2016) ******* ID# 10813 ****

 ** Profile: "SCHEMATIC1-simulacion"  [ c:\users\danie\desktop\ide\lab de cir\lab-circuitos2\lb8-pspicefiles\schematic1\simulacion.si


 ****     CIRCUIT DESCRIPTION


******************************************************************************




** Creating circuit file "simulacion.cir" 
** WARNING: THIS AUTOMATICALLY GENERATED FILE MAY BE OVERWRITTEN BY SUBSEQUENT SIMULATIONS

*Libraries: 
* Profile Libraries :
* Local Libraries :
* From [PSPICE NETLIST] section of C:\Users\danie\AppData\Roaming\SPB_Data\cdssetup\OrCAD_PSpice\17.2.0\PSpice.ini file:
.lib "nomd.lib" 

*Analysis directives: 
.AC DEC 10 1 15Meg
.OPTIONS ADVCONV
.PROBE64 V(alias(*)) I(alias(*)) W(alias(*)) D(alias(*)) NOISE(alias(*)) 
.INC "..\SCHEMATIC1.net" 



**** INCLUDING SCHEMATIC1.net ****
* source LB8
C_C1         0 VOUT1  1u  TC=0,0 
R_R1         VIN VOUT1  159.155 TC=0,0 
V_V1         VIN 0  AC 2.5
+SIN 0 2.5 0 0 0 0
C_C3         VOUT2 VIN  1u  TC=0,0 
R_R3         0 VOUT2  1.59155 TC=0,0 
R_R4         VIN N15984  1.59155 TC=0,0 
R_R5         0 VOUT3  159.155 TC=0,0 
C_C4         N15984 VOUT3  1u  TC=0,0 
C_C5         0 N15984  1u  TC=0,0 
R_R6         VIN N16740  160 TC=0,0 
R_R7         0 VOUT4  16k TC=0,0 
C_C6         N16740 VOUT4  1u  TC=0,0 
C_C7         0 N16740  1u  TC=0,0 

**** RESUMING simulacion.cir ****
.END

**** 03/31/22 10:34:19 ******* PSpice Lite (March 2016) ******* ID# 10813 ****

 ** Profile: "SCHEMATIC1-simulacion"  [ c:\users\danie\desktop\ide\lab de cir\lab-circuitos2\lb8-pspicefiles\schematic1\simulacion.si


 ****     SMALL SIGNAL BIAS SOLUTION       TEMPERATURE =   27.000 DEG C


******************************************************************************



 NODE   VOLTAGE     NODE   VOLTAGE     NODE   VOLTAGE     NODE   VOLTAGE


(  VIN)    0.0000  (VOUT1)    0.0000  (VOUT2)    0.0000  (VOUT3)    0.0000      

(VOUT4)    0.0000  (N15984)    0.0000 (N16740)    0.0000 




    VOLTAGE SOURCE CURRENTS
    NAME         CURRENT

    V_V1         0.000E+00

    TOTAL POWER DISSIPATION   0.00E+00  WATTS



          JOB CONCLUDED

**** 03/31/22 10:34:19 ******* PSpice Lite (March 2016) ******* ID# 10813 ****

 ** Profile: "SCHEMATIC1-simulacion"  [ c:\users\danie\desktop\ide\lab de cir\lab-circuitos2\lb8-pspicefiles\schematic1\simulacion.si


 ****     JOB STATISTICS SUMMARY


******************************************************************************



  Total job time (using Solver 1)   =         .02
