
**** 03/29/22 21:53:26 ******* PSpice Lite (March 2016) ******* ID# 10813 ****

 ** Profile: "SCHEMATIC1-simulacion"  [ C:\Users\danie\Desktop\IDE\lab de cir\lab-circuitos2\lb8-PSpiceFiles\SCHEMATIC1\simulacion.si


 ****     CIRCUIT DESCRIPTION


******************************************************************************




** Creating circuit file "simulacion.cir" 
** WARNING: THIS AUTOMATICALLY GENERATED FILE MAY BE OVERWRITTEN BY SUBSEQUENT SIMULATIONS

*Libraries: 
* Profile Libraries :
* Local Libraries :
* From [PSPICE NETLIST] section of C:\Users\danie\AppData\Roaming\SPB_Data\cdssetup\OrCAD_PSpice\17.2.0\PSpice.ini file:
.lib "nomd.lib" 

*Analysis directives: 
.AC DEC 10 1 15Meg
.OPTIONS ADVCONV
.PROBE64 V(alias(*)) I(alias(*)) W(alias(*)) D(alias(*)) NOISE(alias(*)) 
.INC "..\SCHEMATIC1.net" 



**** INCLUDING SCHEMATIC1.net ****
* source LB8
C_C1         0 VOUT1  1m  TC=0,0 
R_R1         VIN VOUT1  6360k TC=0,0 
V_V1         VIN 0  AC 0
+SIN 0 2.5 0 0 0 0

**** RESUMING simulacion.cir ****
.END

**** 03/29/22 21:53:26 ******* PSpice Lite (March 2016) ******* ID# 10813 ****

 ** Profile: "SCHEMATIC1-simulacion"  [ C:\Users\danie\Desktop\IDE\lab de cir\lab-circuitos2\lb8-PSpiceFiles\SCHEMATIC1\simulacion.si


 ****     SMALL SIGNAL BIAS SOLUTION       TEMPERATURE =   27.000 DEG C


******************************************************************************



 NODE   VOLTAGE     NODE   VOLTAGE     NODE   VOLTAGE     NODE   VOLTAGE


(  VIN)    0.0000  (VOUT1)    0.0000  




    VOLTAGE SOURCE CURRENTS
    NAME         CURRENT

    V_V1         0.000E+00

    TOTAL POWER DISSIPATION   0.00E+00  WATTS


WARNING(ORPSIM-15193): No AC sources -- AC Sweep ignored


          JOB CONCLUDED

**** 03/29/22 21:53:26 ******* PSpice Lite (March 2016) ******* ID# 10813 ****

 ** Profile: "SCHEMATIC1-simulacion"  [ C:\Users\danie\Desktop\IDE\lab de cir\lab-circuitos2\lb8-PSpiceFiles\SCHEMATIC1\simulacion.si


 ****     JOB STATISTICS SUMMARY


******************************************************************************



  Total job time (using Solver 1)   =         .22
